version 3
run General-0-20221218-17:17:43-13952
attr configname General
attr datetime 20221218-17:17:43
attr datetimef 20221218-171743
attr experiment General
attr inifile omnetpp.ini
attr iterationvars ""
attr iterationvarsd ""
attr iterationvarsf ""
attr measurement ""
attr network test_project.Net
attr processid 13952
attr repetition 0
attr replication #0
attr resultdir results
attr runnumber 0
attr seedset 0
config network test_project.Net

par Net.Sender typename "\"test_project.SimpleNode\""
par Net.Reciever typename "\"test_project.SimpleNode\""
par Net typename "\"test_project.Net\""

